tests/readers/opendss/Transformers/test_transformer_kv.dss
Clear

New circuit.test_transformer_kv basekv=115 pu=1.01 phases=3 bus1=sourcebus

! Delta-Wye substation transformer from IEEE 8500 test system

New Transformer.substation phases=3 windings=2 XHL=(8 1000 /)
~ wdg=1 bus=sourcebus conn=delta kv=115 kva=5000 %r=(.5 1000 /) XHT=4
~ wdg=2 bus=bus1 conn=wye kv=4.16 kva=5000 %r=(.5 1000 /)   XLT=4


! Regulator Transformer from IEEE 8500 test system
New Transformer.reg1 phases=3 Buses=[bus1 bus2] windings=2 kVs=[4.16 4.16] kVAs=[1666 1666]

! Two phase delta configuration transformer
New Transformer.xfm1 phases=2 windings=2 XHL=2
~ wdg=1 bus=bus2.1.3 conn=Delta kv=4.16 kva=500 %r=.55 XHT=1
~ wdg=2 bus=bus3.1.2 conn=Wye kv=0.48 kva=500 %r=.55 XLT=1

! Three phase wye-wye transformer from IEEE 4 node feeder
new transformer.t1 xhl=6
~ wdg=1 bus=n2 conn=wye kV=12.47 kVA=6000 %r=0.5
~ wdg=2 bus=n3 conn=wye kV=4.16  kVA=6000 %r=0.5


! Three phase Delta-Wye substation Transformer from 4kV SMART-DS region P4U

New Transformer.sb5_p4uhs0_4_trans_439 phases=3 windings=2 wdg=1 conn=delta Kv=69.0 kva=8000.0 %R=0.4808326112068522 bus=sb5_p4uhs0_4_node_5_12 wdg=2 conn=wye Kv=4.0 kva=8000.0 %R=0.4808326112068522 bus=sb5_p4uhs0_4_node_5_13 XHL=0.9616652224137047

! Three phase Wye-Wye Transformer from 4kV SMART-DS region P4U

New Transformer.tr(r:p4udt27-p4udt27lv) phases=3 windings=2 %loadloss=1.74408 %Noloadloss=0.6 normhkva=82.5 wdg=1 conn=wye Kv=4.0 kva=75.0 EmergHKVA=112.5 %R=0.87204 bus=p4udt27 wdg=2 conn=wye Kv=0.48 kva=75.0 EmergHKVA=112.5 %R=0.87204 bus=p4udt27lv XHL=3.240000000000000 

! Three phase Delta-Wye Transformer (modified) from 4kV SMART-DS region P4U

New Transformer.tr(r:p4udt27-p4udt27lv)_1 phases=3 windings=2 %loadloss=1.74408 %Noloadloss=0.6 normhkva=82.5 wdg=1 conn=delta Kv=4.0 kva=75.0 EmergHKVA=112.5 %R=0.87204 bus=p4udt27 wdg=2 conn=wye Kv=0.48 kva=75.0 EmergHKVA=112.5 %R=0.87204 bus=p4udt27lv XHL=3.240000000000000 

! Three phase Delta-Delta Transformer (modified) from 4kV SMART-DS region P4U

New Transformer.tr(r:p4udt27-p4udt27lv)_2 phases=3 windings=2 %loadloss=1.74408 %Noloadloss=0.6 normhkva=82.5 wdg=1 conn=delta Kv=4.0 kva=75.0 EmergHKVA=112.5 %R=0.87204 bus=p4udt27 wdg=2 conn=delta Kv=0.48 kva=75.0 EmergHKVA=112.5 %R=0.87204 bus=p4udt27lv XHL=3.240000000000000 

! Three phase Wye-Delta Transformer (modified) from 4kV SMART-DS region P4U

New Transformer.tr(r:p4udt27-p4udt27lv)_3 phases=3 windings=2 %loadloss=1.74408 %Noloadloss=0.6 normhkva=82.5 wdg=1 conn=wye Kv=4.0 kva=75.0 EmergHKVA=112.5 %R=0.87204 bus=p4udt27 wdg=2 conn=delta Kv=0.48 kva=75.0 EmergHKVA=112.5 %R=0.87204 bus=p4udt27lv XHL=3.240000000000000 

! Center Tap Transformer from 4kV SMART-DS region P4U

New Transformer.tr(r:p4udt25-p4udt25lv) phases=1 windings=3 %loadloss=0.798816 %Noloadloss=0.472 normhkva=27.5 wdg=1 conn=wye bus=p4udt25.2 Kv=2.3094 kva=25.0 EmergHKVA=37.5 %r=0.266272 wdg=2 conn=wye bus=p4udt25lv.1.0 Kv=0.120089 kva=25.0 EmergHKVA=37.5 %r=0.532544 wdg=3 conn=wye bus=p4udt25lv.0.2 Kv=0.120089 kva=25.0 EmergHKVA=37.5 %r=0.532544 XHL=2.4 XLT=2.4 XHT=1.6


! Center Tap Transformer from IEEE 8500 test case

New Transformer.T21396254A phases=1 windings=3  wdg=1 bus=L2804253.1 kv=7.2 kVA=15   wdg=2 bus=X2804253A.1.0 kv=0.12 kVA=15   wdg=3 bus=X2804253A.0.2 kv=0.12 kVA=15   %imag=0.5 %Rs=[0.6 1.2 1.2] %noloadloss=.2 Xhl=2.04  Xht=2.04  Xlt=1.36


! Single phase Wye-Wye Transformer (for regulator) From IEEE 8500 Test case 
New Transformer.FEEDER_REGA phases=1  windings=2  Bank=FEEDER_REG buses=(regxfmr_HVMV_Sub_LSB.1,  _HVMV_Sub_LSB.1)  conns=(wye, wye)  kvs=(7.2, 7.2)  kvas=(27500, 27500)  xhl=0.1 %loadloss=.001 wdg=2 Maxtap=1.1 Mintap=0.9 ppm=0


! Single phase Wye-Wye Transformers from Epri J-1 Feeder
New Transformer.B13659-1C phases=1 wdg=1 bus=B13659.3 kv=7.2 kVA=15 wdg=2 bus=X_B13659-C.3 kv=0.24 kVA=15 %loadloss=1.04 %noloadloss=0.34 XHL=1.5 normhkva=15 emerghkva=21
New Transformer.B4551-1A phases=1 wdg=1	bus=B4551.1 kv=7.2 kVA=15 wdg=2	bus=X_B4551-A.1	kv=0.24	kVA=15 %loadloss=1.04 %noloadloss=0.34 XHL=1.5 normhkva=15 emerghkva=21


! Three phase Wye-Wye Transformer from Epri J-1 Feeder
New Transformer.5865228330A-1ABC phases=3 wdg=1	bus=5865228330A.1.2.3 kv=12.47 kVA=2000	wdg=2 bus=X_5865228330A	kv=0.416 kVA=2000 %loadloss=0.7 %noloadloss=0.05 XHL=5	normhkva=2000.01 emerghkva=2800

! Single phase delta-wye transformer. This is a dummy test as we don't expect to see delta configurations on a single phase
new transformer.t1 phases=1 xhl=6
~ wdg=1 bus=n2.3 conn=delta kV=12.47 kVA=6000 %r=0.5
~ wdg=2 bus=n3.1.2 conn=wye kV=4.16  kVA=6000 %r=0.5

! Single phase wye-delta transformer. This is a dummy test as we don't expect to see delta configurations on a single phase
new transformer.t1 phases=1 xhl=6
~ wdg=1 bus=n2.3 conn=wye kV=12.47 kVA=6000 %r=0.5
~ wdg=2 bus=n3.1.2 conn=delta kV=4.16  kVA=6000 %r=0.5


Set Voltagebases=[115, 12.7, 7.2, 4.16, 4.0, 0.48, 0.416, 0.12]
Calcvoltagebases
Solve
